data/mpower/sp_case118.m
function mpc = sp_case118
% SP_CASE118  Synthetic 118-bus case in the shape of the IEEE 118-bus system.
%
% Same cardinalities as the IEEE 118-bus case (118 buses, 186 branches of
% which 9 transformers, 54 generators of which 27 synchronous condensers,
% 99 loads, three areas, an 11-bus 345 kV backbone over a 138 kV grid),
% with its OWN topology, parameters and names: no IEEE data is copied, the
% file carries no external license. Generated by a script that is not part of the package
% (seed 118); validated there with a Newton-Raphson power flow including
% generator Q-limit enforcement, an island check and an N-1 sweep.
%
% Base case: 4 NR iterations, Vmin 0.9835 pu, Vmax 1.0452 pu,
% highest branch loading 76.3 %, 10 generators at a
% reactive limit, total load 4242 MW / 1503 Mvar. N-1 over the
% branches: 4 outages island a bus, 2 do not converge. Bus 69 is the slack;
% its unit's Pg is the base-case slack generation (a distributed-slack run starts there).
% Ratings: sized per branch to the base-case flow with 30 percent headroom in the
% classes 200..800 MVA (138 kV), 900..1500 MVA (345 kV) and 500..1000 MVA (transformers).

%% MATPOWER Case Format : Version 2
mpc.version = '2';

%%-----  Power Flow Data  -----%%
%% system MVA base
mpc.baseMVA = 100;

%% bus data
%	bus_i	type	Pd	Qd	Gs	Bs	area	Vm	Va	baseKV	zone	Vmax	Vmin
mpc.bus = [
	1	1	67.0	19.0	0.0	0.0	1	1.0	0.0	138.0	1	1.06	0.94;
	2	1	54.0	22.0	0.0	0.0	1	1.0	0.0	138.0	1	1.06	0.94;
	3	1	75.0	31.0	0.0	0.0	1	1.0	0.0	138.0	1	1.06	0.94;
	4	2	86.0	23.0	0.0	0.0	1	1.0	0.0	138.0	1	1.06	0.94;
	5	1	45.0	12.0	0.0	-40.0	1	1.0	0.0	138.0	1	1.06	0.94;
	6	1	43.0	17.0	0.0	0.0	1	1.0	0.0	138.0	1	1.06	0.94;
	7	1	14.0	6.0	0.0	0.0	1	1.0	0.0	138.0	1	1.06	0.94;
	8	2	0.0	0.0	0.0	0.0	1	1.0	0.0	345.0	1	1.06	0.94;
	9	1	0.0	0.0	0.0	0.0	1	1.0	0.0	345.0	1	1.06	0.94;
	10	2	25.0	7.0	0.0	0.0	1	1.0	0.0	345.0	1	1.06	0.94;
	11	1	45.0	16.0	0.0	0.0	1	1.0	0.0	138.0	1	1.06	0.94;
	12	2	29.0	11.0	0.0	0.0	1	1.0	0.0	138.0	1	1.06	0.94;
	13	1	20.0	7.0	0.0	0.0	1	1.0	0.0	138.0	1	1.06	0.94;
	14	1	57.0	16.0	0.0	0.0	1	1.0	0.0	138.0	1	1.06	0.94;
	15	1	20.0	8.0	0.0	0.0	1	1.0	0.0	138.0	1	1.06	0.94;
	16	1	52.0	18.0	0.0	0.0	1	1.0	0.0	138.0	1	1.06	0.94;
	17	1	66.0	22.0	0.0	0.0	1	1.0	0.0	138.0	1	1.06	0.94;
	18	1	15.0	4.0	0.0	0.0	1	1.0	0.0	138.0	1	1.06	0.94;
	19	2	13.0	3.0	0.0	0.0	1	1.0	0.0	138.0	1	1.06	0.94;
	20	1	69.0	29.0	0.0	0.0	1	1.0	0.0	138.0	1	1.06	0.94;
	21	1	58.0	23.0	0.0	0.0	1	1.0	0.0	138.0	1	1.06	0.94;
	22	1	31.0	9.0	0.0	0.0	1	1.0	0.0	138.0	1	1.06	0.94;
	23	1	57.0	25.0	0.0	0.0	1	1.0	0.0	138.0	1	1.06	0.94;
	24	2	128.0	46.0	0.0	0.0	1	1.0	0.0	138.0	1	1.06	0.94;
	25	2	19.0	7.0	0.0	0.0	1	1.0	0.0	138.0	1	1.06	0.94;
	26	2	0.0	0.0	0.0	0.0	1	1.0	0.0	345.0	1	1.06	0.94;
	27	2	54.0	19.0	0.0	0.0	1	1.0	0.0	138.0	1	1.06	0.94;
	28	1	12.0	3.0	0.0	0.0	1	1.0	0.0	138.0	1	1.06	0.94;
	29	1	7.0	3.0	0.0	0.0	1	1.0	0.0	138.0	1	1.06	0.94;
	30	2	60.0	16.0	0.0	0.0	1	1.0	0.0	345.0	1	1.06	0.94;
	31	2	18.0	6.0	0.0	0.0	1	1.0	0.0	138.0	1	1.06	0.94;
	32	2	8.0	3.0	0.0	0.0	1	1.0	0.0	138.0	1	1.06	0.94;
	33	1	78.0	26.0	0.0	0.0	1	1.0	0.0	138.0	1	1.06	0.94;
	34	2	33.0	11.0	0.0	14.0	1	1.0	0.0	138.0	1	1.06	0.94;
	35	1	47.0	18.0	0.0	0.0	1	1.0	0.0	138.0	1	1.06	0.94;
	36	2	19.0	8.0	0.0	0.0	1	1.0	0.0	138.0	1	1.06	0.94;
	37	1	51.0	20.0	0.0	-25.0	1	1.0	0.0	138.0	1	1.06	0.94;
	38	2	0.0	0.0	0.0	0.0	1	1.0	0.0	345.0	1	1.06	0.94;
	39	1	52.0	14.0	0.0	0.0	1	1.0	0.0	138.0	1	1.06	0.94;
	40	2	31.0	13.0	0.0	0.0	1	1.0	0.0	138.0	1	1.06	0.94;
	41	1	20.0	8.0	0.0	0.0	2	1.0	0.0	138.0	2	1.06	0.94;
	42	2	77.0	33.0	0.0	0.0	2	1.0	0.0	138.0	2	1.06	0.94;
	43	1	33.0	14.0	0.0	0.0	2	1.0	0.0	138.0	2	1.06	0.94;
	44	1	21.0	9.0	0.0	10.0	2	1.0	0.0	138.0	2	1.06	0.94;
	45	1	49.0	21.0	0.0	10.0	2	1.0	0.0	138.0	2	1.06	0.94;
	46	2	57.0	21.0	0.0	10.0	2	1.0	0.0	138.0	2	1.06	0.94;
	47	1	122.0	34.0	0.0	0.0	2	1.0	0.0	138.0	2	1.06	0.94;
	48	1	25.0	7.0	0.0	15.0	2	1.0	0.0	138.0	2	1.06	0.94;
	49	2	38.0	16.0	0.0	0.0	2	1.0	0.0	138.0	2	1.06	0.94;
	50	1	46.0	12.0	0.0	0.0	2	1.0	0.0	138.0	2	1.06	0.94;
	51	1	74.0	23.0	0.0	0.0	2	1.0	0.0	138.0	2	1.06	0.94;
	52	1	30.0	13.0	0.0	0.0	2	1.0	0.0	138.0	2	1.06	0.94;
	53	1	30.0	9.0	0.0	0.0	2	1.0	0.0	138.0	2	1.06	0.94;
	54	2	23.0	6.0	0.0	0.0	2	1.0	0.0	138.0	2	1.06	0.94;
	55	2	26.0	10.0	0.0	0.0	2	1.0	0.0	138.0	2	1.06	0.94;
	56	2	80.0	29.0	0.0	0.0	2	1.0	0.0	138.0	2	1.06	0.94;
	57	1	8.0	3.0	0.0	0.0	2	1.0	0.0	138.0	2	1.06	0.94;
	58	1	46.0	12.0	0.0	0.0	2	1.0	0.0	138.0	2	1.06	0.94;
	59	2	22.0	10.0	0.0	0.0	2	1.0	0.0	138.0	2	1.06	0.94;
	60	1	25.0	8.0	0.0	0.0	2	1.0	0.0	138.0	2	1.06	0.94;
	61	2	51.0	16.0	0.0	0.0	2	1.0	0.0	138.0	2	1.06	0.94;
	62	2	72.0	22.0	0.0	0.0	2	1.0	0.0	138.0	2	1.06	0.94;
	63	2	0.0	0.0	0.0	0.0	2	1.0	0.0	345.0	2	1.06	0.94;
	64	1	0.0	0.0	0.0	0.0	2	1.0	0.0	345.0	2	1.06	0.94;
	65	2	0.0	0.0	0.0	0.0	2	1.0	0.0	345.0	2	1.06	0.94;
	66	2	109.0	39.0	0.0	0.0	2	1.0	0.0	138.0	2	1.06	0.94;
	67	1	57.0	21.0	0.0	0.0	2	1.0	0.0	138.0	2	1.06	0.94;
	68	2	0.0	0.0	0.0	0.0	2	1.0	0.0	345.0	2	1.06	0.94;
	69	3	31.0	13.0	0.0	0.0	2	1.0	0.0	138.0	2	1.06	0.94;
	70	2	45.0	14.0	0.0	0.0	2	1.0	0.0	138.0	2	1.06	0.94;
	71	1	102.0	26.0	0.0	0.0	2	1.0	0.0	138.0	2	1.06	0.94;
	72	2	35.0	10.0	0.0	0.0	2	1.0	0.0	138.0	2	1.06	0.94;
	73	2	36.0	15.0	0.0	0.0	2	1.0	0.0	138.0	2	1.06	0.94;
	74	2	19.0	7.0	0.0	12.0	2	1.0	0.0	138.0	2	1.06	0.94;
	75	1	30.0	9.0	0.0	0.0	2	1.0	0.0	138.0	2	1.06	0.94;
	76	2	29.0	11.0	0.0	0.0	2	1.0	0.0	138.0	2	1.06	0.94;
	77	2	59.0	23.0	0.0	0.0	2	1.0	0.0	138.0	2	1.06	0.94;
	78	1	12.0	5.0	0.0	0.0	2	1.0	0.0	138.0	2	1.06	0.94;
	79	1	22.0	7.0	0.0	20.0	2	1.0	0.0	138.0	2	1.06	0.94;
	80	2	25.0	11.0	0.0	0.0	2	1.0	0.0	138.0	2	1.06	0.94;
	81	2	0.0	0.0	0.0	0.0	3	1.0	0.0	345.0	3	1.06	0.94;
	82	1	37.0	16.0	0.0	20.0	3	1.0	0.0	138.0	3	1.06	0.94;
	83	1	37.0	17.0	0.0	10.0	3	1.0	0.0	138.0	3	1.06	0.94;
	84	1	7.0	3.0	0.0	0.0	3	1.0	0.0	138.0	3	1.06	0.94;
	85	2	25.0	11.0	0.0	0.0	3	1.0	0.0	138.0	3	1.06	0.94;
	86	1	18.0	8.0	0.0	0.0	3	1.0	0.0	138.0	3	1.06	0.94;
	87	2	31.0	11.0	0.0	0.0	3	1.0	0.0	138.0	3	1.06	0.94;
	88	1	28.0	11.0	0.0	0.0	3	1.0	0.0	138.0	3	1.06	0.94;
	89	2	128.0	52.0	0.0	0.0	3	1.0	0.0	138.0	3	1.06	0.94;
	90	2	15.0	4.0	0.0	0.0	3	1.0	0.0	138.0	3	1.06	0.94;
	91	2	43.0	19.0	0.0	0.0	3	1.0	0.0	138.0	3	1.06	0.94;
	92	2	103.0	41.0	0.0	0.0	3	1.0	0.0	138.0	3	1.06	0.94;
	93	1	40.0	12.0	0.0	0.0	3	1.0	0.0	138.0	3	1.06	0.94;
	94	1	53.0	14.0	0.0	0.0	3	1.0	0.0	138.0	3	1.06	0.94;
	95	1	44.0	18.0	0.0	0.0	3	1.0	0.0	138.0	3	1.06	0.94;
	96	1	15.0	6.0	0.0	0.0	3	1.0	0.0	138.0	3	1.06	0.94;
	97	1	18.0	8.0	0.0	0.0	3	1.0	0.0	138.0	3	1.06	0.94;
	98	1	63.0	20.0	0.0	0.0	3	1.0	0.0	138.0	3	1.06	0.94;
	99	2	14.0	4.0	0.0	0.0	3	1.0	0.0	138.0	3	1.06	0.94;
	100	2	30.0	10.0	0.0	0.0	3	1.0	0.0	138.0	3	1.06	0.94;
	101	1	26.0	9.0	0.0	0.0	3	1.0	0.0	138.0	3	1.06	0.94;
	102	1	38.0	14.0	0.0	0.0	3	1.0	0.0	138.0	3	1.06	0.94;
	103	2	40.0	15.0	0.0	0.0	3	1.0	0.0	138.0	3	1.06	0.94;
	104	2	94.0	41.0	0.0	0.0	3	1.0	0.0	138.0	3	1.06	0.94;
	105	2	34.0	12.0	0.0	20.0	3	1.0	0.0	138.0	3	1.06	0.94;
	106	1	21.0	9.0	0.0	0.0	3	1.0	0.0	138.0	3	1.06	0.94;
	107	2	39.0	11.0	0.0	6.0	3	1.0	0.0	138.0	3	1.06	0.94;
	108	1	57.0	19.0	0.0	0.0	3	1.0	0.0	138.0	3	1.06	0.94;
	109	1	0.0	0.0	0.0	0.0	3	1.0	0.0	138.0	3	1.06	0.94;
	110	2	0.0	0.0	0.0	6.0	3	1.0	0.0	138.0	3	1.06	0.94;
	111	2	0.0	0.0	0.0	0.0	3	1.0	0.0	138.0	3	1.06	0.94;
	112	1	0.0	0.0	0.0	0.0	3	1.0	0.0	138.0	3	1.06	0.94;
	113	2	0.0	0.0	0.0	0.0	3	1.0	0.0	138.0	3	1.06	0.94;
	114	1	0.0	0.0	0.0	0.0	3	1.0	0.0	138.0	3	1.06	0.94;
	115	1	0.0	0.0	0.0	0.0	3	1.0	0.0	138.0	3	1.06	0.94;
	116	2	0.0	0.0	0.0	0.0	3	1.0	0.0	138.0	3	1.06	0.94;
	117	1	0.0	0.0	0.0	0.0	3	1.0	0.0	138.0	3	1.06	0.94;
	118	1	0.0	0.0	0.0	0.0	3	1.0	0.0	138.0	3	1.06	0.94;
];

%% generator data
%	bus	Pg	Qg	Qmax	Qmin	Vg	mBase	status	Pmax	Pmin
mpc.gen = [
	4	147	0.0	25.0	-15.0	1.015	100.0	1	200.0	0.0;
	8	183	0.0	75.0	-20.0	1.01	100.0	1	250.0	0.0;
	10	305	0.0	125.0	-130.0	1.01	100.0	1	410.0	0.0;
	12	122	0.0	50.0	-240.0	1.005	100.0	1	160.0	0.0;
	19	122	0.0	145.0	-75.0	1.02	100.0	1	160.0	0.0;
	24	0.0	0.0	185.0	-20.0	1.0	100.0	1	100.0	0.0;
	25	134	0.0	195.0	-20.0	1.02	100.0	1	180.0	0.0;
	26	244	0.0	100.0	-45.0	1.01	100.0	1	330.0	0.0;
	27	122	0.0	255.0	-20.0	1.02	100.0	1	160.0	0.0;
	30	203	0.0	80.0	-110.0	1.005	100.0	1	270.0	0.0;
	31	0.0	0.0	30.0	-15.0	1.015	100.0	1	100.0	0.0;
	32	67	0.0	40.0	-75.0	1.01	100.0	1	100.0	0.0;
	34	0.0	0.0	140.0	-20.0	1.015	100.0	1	100.0	0.0;
	36	147	0.0	60.0	-20.0	1.015	100.0	1	200.0	0.0;
	38	225	0.0	90.0	-105.0	1.005	100.0	1	300.0	0.0;
	40	0.0	0.0	20.0	-105.0	0.985	100.0	1	100.0	0.0;
	42	0.0	0.0	20.0	-20.0	1.0	100.0	1	100.0	0.0;
	46	0.0	0.0	20.0	-20.0	1.0	100.0	1	100.0	0.0;
	49	128	0.0	95.0	-20.0	1.01	100.0	1	170.0	0.0;
	54	85	0.0	25.0	-15.0	1.01	100.0	1	110.0	0.0;
	55	0.0	0.0	20.0	-35.0	1.01	100.0	1	100.0	0.0;
	56	0.0	0.0	100.0	-20.0	1.0	100.0	1	100.0	0.0;
	59	103	0.0	170.0	-20.0	1.02	100.0	1	140.0	0.0;
	61	103	0.0	60.0	-20.0	1.02	100.0	1	140.0	0.0;
	62	0.0	0.0	285.0	-20.0	1.02	100.0	1	100.0	0.0;
	63	154	0.0	65.0	-90.0	1.015	100.0	1	210.0	0.0;
	65	299	0.0	120.0	-20.0	1.02	100.0	1	400.0	0.0;
	66	128	0.0	175.0	-20.0	1.01	100.0	1	170.0	0.0;
	68	171	0.0	70.0	-280.0	1.005	100.0	1	230.0	0.0;
	69	267.2	0.0	402	-242	1.02	100.0	1	805.0	0.0;
	70	0.0	0.0	25.0	-20.0	1.015	100.0	1	100.0	0.0;
	72	0.0	0.0	10.0	-10.0	1.01	100.0	1	100.0	0.0;
	73	0.0	0.0	100.0	-185.0	1.0	100.0	1	100.0	0.0;
	74	0.0	0.0	85.0	-20.0	1.02	100.0	1	100.0	0.0;
	76	0.0	0.0	90.0	-20.0	1.01	100.0	1	100.0	0.0;
	77	0.0	0.0	165.0	-90.0	1.02	100.0	1	100.0	0.0;
	80	128	0.0	50.0	-155.0	1.01	100.0	1	170.0	0.0;
	81	322	0.0	290.0	-20.0	1.02	100.0	1	430.0	0.0;
	85	0.0	0.0	10.0	-10.0	1.015	100.0	1	100.0	0.0;
	87	0.0	0.0	60.0	-110.0	1.0	100.0	1	100.0	0.0;
	89	161	0.0	145.0	-20.0	1.01	100.0	1	220.0	0.0;
	90	0.0	0.0	140.0	-20.0	1.01	100.0	1	100.0	0.0;
	91	0.0	0.0	20.0	-395.0	0.985	100.0	1	100.0	0.0;
	92	65	0.0	360.0	-20.0	1.01	100.0	1	100.0	0.0;
	99	0.0	0.0	20.0	-55.0	1.005	100.0	1	100.0	0.0;
	100	161	0.0	260.0	-20.0	1.015	100.0	1	220.0	0.0;
	103	0.0	0.0	20.0	-75.0	1.0	100.0	1	100.0	0.0;
	104	0.0	0.0	365.0	-20.0	1.02	100.0	1	100.0	0.0;
	105	0.0	0.0	80.0	-20.0	1.015	100.0	1	100.0	0.0;
	107	0.0	0.0	20.0	-40.0	1.01	100.0	1	100.0	0.0;
	110	0.0	0.0	20.0	-145.0	1.0	100.0	1	100.0	0.0;
	111	0.0	0.0	235.0	-20.0	1.02	100.0	1	100.0	0.0;
	113	0.0	0.0	20.0	-70.0	1.005	100.0	1	100.0	0.0;
	116	85	0.0	35.0	-20.0	1.01	100.0	1	110.0	0.0;
];

%% branch data
%	fbus	tbus	r	x	b	rateA	rateB	rateC	ratio	angle	status	angmin	angmax
mpc.branch = [
	1	27	0.00645	0.0258	0.00655	200.0	200.0	200.0	0.0	0.0	1	-360.0	360.0;
	27	3	0.00396	0.01583	0.00402	200.0	200.0	200.0	0.0	0.0	1	-360.0	360.0;
	3	18	0.007	0.02798	0.0071	200.0	200.0	200.0	0.0	0.0	1	-360.0	360.0;
	18	33	0.00668	0.02671	0.00678	200.0	200.0	200.0	0.0	0.0	1	-360.0	360.0;
	33	4	0.00558	0.02231	0.00566	200.0	200.0	200.0	0.0	0.0	1	-360.0	360.0;
	4	31	0.00441	0.01764	0.00448	200.0	200.0	200.0	0.0	0.0	1	-360.0	360.0;
	31	20	0.0037	0.01482	0.00376	200.0	200.0	200.0	0.0	0.0	1	-360.0	360.0;
	20	7	0.00463	0.01852	0.0047	200.0	200.0	200.0	0.0	0.0	1	-360.0	360.0;
	27	35	0.00731	0.02925	0.00743	200.0	200.0	200.0	0.0	0.0	1	-360.0	360.0;
	20	23	0.00956	0.03825	0.00971	300.0	300.0	300.0	0.0	0.0	1	-360.0	360.0;
	23	13	0.00449	0.01797	0.00456	200.0	200.0	200.0	0.0	0.0	1	-360.0	360.0;
	18	6	0.00966	0.03864	0.00981	200.0	200.0	200.0	0.0	0.0	1	-360.0	360.0;
	6	5	0.00621	0.02483	0.0063	200.0	200.0	200.0	0.0	0.0	1	-360.0	360.0;
	5	29	0.00726	0.02905	0.00737	200.0	200.0	200.0	0.0	0.0	1	-360.0	360.0;
	29	39	0.00648	0.02592	0.00658	200.0	200.0	200.0	0.0	0.0	1	-360.0	360.0;
	39	14	0.00436	0.01743	0.00443	200.0	200.0	200.0	0.0	0.0	1	-360.0	360.0;
	14	24	0.00431	0.01725	0.00438	200.0	200.0	200.0	0.0	0.0	1	-360.0	360.0;
	29	17	0.00809	0.03235	0.00821	200.0	200.0	200.0	0.0	0.0	1	-360.0	360.0;
	17	36	0.00611	0.02444	0.0062	200.0	200.0	200.0	0.0	0.0	1	-360.0	360.0;
	34	37	0.00542	0.02166	0.0055	200.0	200.0	200.0	0.0	0.0	1	-360.0	360.0;
	37	16	0.00588	0.0235	0.00597	200.0	200.0	200.0	0.0	0.0	1	-360.0	360.0;
	16	15	0.00382	0.01527	0.00388	200.0	200.0	200.0	0.0	0.0	1	-360.0	360.0;
	15	28	0.00389	0.01557	0.00395	200.0	200.0	200.0	0.0	0.0	1	-360.0	360.0;
	16	21	0.00551	0.02205	0.0056	200.0	200.0	200.0	0.0	0.0	1	-360.0	360.0;
	37	40	0.00896	0.03583	0.0091	200.0	200.0	200.0	0.0	0.0	1	-360.0	360.0;
	40	2	0.00747	0.0299	0.00759	200.0	200.0	200.0	0.0	0.0	1	-360.0	360.0;
	2	19	0.00754	0.03017	0.00766	200.0	200.0	200.0	0.0	0.0	1	-360.0	360.0;
	19	32	0.00433	0.01734	0.0044	200.0	200.0	200.0	0.0	0.0	1	-360.0	360.0;
	32	12	0.00622	0.02488	0.00632	200.0	200.0	200.0	0.0	0.0	1	-360.0	360.0;
	12	25	0.00439	0.01756	0.00446	200.0	200.0	200.0	0.0	0.0	1	-360.0	360.0;
	32	22	0.00771	0.03083	0.00783	200.0	200.0	200.0	0.0	0.0	1	-360.0	360.0;
	1	11	0.01095	0.04379	0.01112	250.0	250.0	250.0	0.0	0.0	1	-360.0	360.0;
	16	28	0.00447	0.01789	0.00454	200.0	200.0	200.0	0.0	0.0	1	-360.0	360.0;
	4	20	0.00496	0.01984	0.00504	200.0	200.0	200.0	0.0	0.0	1	-360.0	360.0;
	7	31	0.00505	0.02018	0.00512	200.0	200.0	200.0	0.0	0.0	1	-360.0	360.0;
	24	39	0.00528	0.02112	0.00536	200.0	200.0	200.0	0.0	0.0	1	-360.0	360.0;
	15	21	0.00599	0.02396	0.00608	200.0	200.0	200.0	0.0	0.0	1	-360.0	360.0;
	4	7	0.00622	0.02487	0.00631	200.0	200.0	200.0	0.0	0.0	1	-360.0	360.0;
	15	37	0.00626	0.02505	0.00636	200.0	200.0	200.0	0.0	0.0	1	-360.0	360.0;
	25	32	0.00628	0.02514	0.00638	200.0	200.0	200.0	0.0	0.0	1	-360.0	360.0;
	28	37	0.00636	0.02543	0.00646	200.0	200.0	200.0	0.0	0.0	1	-360.0	360.0;
	31	33	0.0065	0.02601	0.0066	200.0	200.0	200.0	0.0	0.0	1	-360.0	360.0;
	21	28	0.00673	0.02693	0.00684	200.0	200.0	200.0	0.0	0.0	1	-360.0	360.0;
	1	3	0.00674	0.02697	0.00685	200.0	200.0	200.0	0.0	0.0	1	-360.0	360.0;
	20	33	0.007	0.02802	0.00711	200.0	200.0	200.0	0.0	0.0	1	-360.0	360.0;
	21	37	0.00731	0.02924	0.00742	200.0	200.0	200.0	0.0	0.0	1	-360.0	360.0;
	12	19	0.0074	0.02959	0.00751	200.0	200.0	200.0	0.0	0.0	1	-360.0	360.0;
	19	25	0.00744	0.02975	0.00755	200.0	200.0	200.0	0.0	0.0	1	-360.0	360.0;
	14	29	0.00763	0.03051	0.00774	200.0	200.0	200.0	0.0	0.0	1	-360.0	360.0;
	18	27	0.00771	0.03085	0.00783	200.0	200.0	200.0	0.0	0.0	1	-360.0	360.0;
	19	22	0.00781	0.03123	0.00793	200.0	200.0	200.0	0.0	0.0	1	-360.0	360.0;
	16	34	0.00792	0.03167	0.00804	200.0	200.0	200.0	0.0	0.0	1	-360.0	360.0;
	41	52	0.00918	0.03673	0.00933	200.0	200.0	200.0	0.0	0.0	1	-360.0	360.0;
	52	54	0.0062	0.02481	0.0063	200.0	200.0	200.0	0.0	0.0	1	-360.0	360.0;
	54	50	0.00735	0.0294	0.00746	200.0	200.0	200.0	0.0	0.0	1	-360.0	360.0;
	50	48	0.00945	0.03782	0.0096	200.0	200.0	200.0	0.0	0.0	1	-360.0	360.0;
	48	75	0.00704	0.02814	0.00715	300.0	300.0	300.0	0.0	0.0	1	-360.0	360.0;
	75	47	0.00701	0.02804	0.00712	200.0	200.0	200.0	0.0	0.0	1	-360.0	360.0;
	48	62	0.00747	0.02987	0.00758	250.0	250.0	250.0	0.0	0.0	1	-360.0	360.0;
	62	73	0.00515	0.02059	0.00523	200.0	200.0	200.0	0.0	0.0	1	-360.0	360.0;
	73	78	0.00516	0.02064	0.00524	200.0	200.0	200.0	0.0	0.0	1	-360.0	360.0;
	78	77	0.00528	0.02114	0.00537	200.0	200.0	200.0	0.0	0.0	1	-360.0	360.0;
	78	55	0.0055	0.02202	0.00559	200.0	200.0	200.0	0.0	0.0	1	-360.0	360.0;
	77	74	0.00571	0.02282	0.00579	200.0	200.0	200.0	0.0	0.0	1	-360.0	360.0;
	77	43	0.00631	0.02525	0.00641	200.0	200.0	200.0	0.0	0.0	1	-360.0	360.0;
	43	79	0.00488	0.0195	0.00495	200.0	200.0	200.0	0.0	0.0	1	-360.0	360.0;
	79	44	0.0045	0.018	0.00457	200.0	200.0	200.0	0.0	0.0	1	-360.0	360.0;
	70	59	0.00375	0.01502	0.00381	200.0	200.0	200.0	0.0	0.0	1	-360.0	360.0;
	70	45	0.00514	0.02058	0.00522	200.0	200.0	200.0	0.0	0.0	1	-360.0	360.0;
	45	60	0.00767	0.03067	0.00779	200.0	200.0	200.0	0.0	0.0	1	-360.0	360.0;
	60	80	0.00415	0.01659	0.00421	250.0	250.0	250.0	0.0	0.0	1	-360.0	360.0;
	80	69	0.00617	0.02467	0.00626	200.0	200.0	200.0	0.0	0.0	1	-360.0	360.0;
	69	53	0.00633	0.02531	0.00643	200.0	200.0	200.0	0.0	0.0	1	-360.0	360.0;
	53	71	0.00621	0.02484	0.00631	200.0	200.0	200.0	0.0	0.0	1	-360.0	360.0;
	47	66	0.0088	0.03521	0.00894	200.0	200.0	200.0	0.0	0.0	1	-360.0	360.0;
	66	46	0.0073	0.0292	0.00741	200.0	200.0	200.0	0.0	0.0	1	-360.0	360.0;
	51	56	0.00564	0.02254	0.00572	200.0	200.0	200.0	0.0	0.0	1	-360.0	360.0;
	51	76	0.00953	0.03811	0.00968	200.0	200.0	200.0	0.0	0.0	1	-360.0	360.0;
	76	49	0.00518	0.02072	0.00526	200.0	200.0	200.0	0.0	0.0	1	-360.0	360.0;
	49	42	0.00732	0.0293	0.00744	200.0	200.0	200.0	0.0	0.0	1	-360.0	360.0;
	42	67	0.00545	0.0218	0.00554	200.0	200.0	200.0	0.0	0.0	1	-360.0	360.0;
	42	72	0.00878	0.03511	0.00891	250.0	250.0	250.0	0.0	0.0	1	-360.0	360.0;
	72	61	0.00544	0.02175	0.00552	300.0	300.0	300.0	0.0	0.0	1	-360.0	360.0;
	69	58	0.01135	0.0454	0.01153	200.0	200.0	200.0	0.0	0.0	1	-360.0	360.0;
	58	57	0.00533	0.02132	0.00541	200.0	200.0	200.0	0.0	0.0	1	-360.0	360.0;
	45	59	0.00519	0.02076	0.00527	200.0	200.0	200.0	0.0	0.0	1	-360.0	360.0;
	55	77	0.00589	0.02356	0.00598	200.0	200.0	200.0	0.0	0.0	1	-360.0	360.0;
	43	44	0.00618	0.02473	0.00628	200.0	200.0	200.0	0.0	0.0	1	-360.0	360.0;
	55	73	0.00658	0.02632	0.00668	200.0	200.0	200.0	0.0	0.0	1	-360.0	360.0;
	62	78	0.00663	0.02653	0.00674	200.0	200.0	200.0	0.0	0.0	1	-360.0	360.0;
	74	78	0.00698	0.02792	0.00709	200.0	200.0	200.0	0.0	0.0	1	-360.0	360.0;
	60	69	0.00707	0.0283	0.00718	250.0	250.0	250.0	0.0	0.0	1	-360.0	360.0;
	73	77	0.00729	0.02917	0.00741	200.0	200.0	200.0	0.0	0.0	1	-360.0	360.0;
	43	74	0.00735	0.02941	0.00747	200.0	200.0	200.0	0.0	0.0	1	-360.0	360.0;
	43	55	0.0077	0.03079	0.00782	200.0	200.0	200.0	0.0	0.0	1	-360.0	360.0;
	53	80	0.0084	0.03362	0.00853	200.0	200.0	200.0	0.0	0.0	1	-360.0	360.0;
	45	80	0.00857	0.03428	0.0087	200.0	200.0	200.0	0.0	0.0	1	-360.0	360.0;
	59	75	0.00873	0.03492	0.00887	400.0	400.0	400.0	0.0	0.0	1	-360.0	360.0;
	82	100	0.00555	0.02219	0.00563	200.0	200.0	200.0	0.0	0.0	1	-360.0	360.0;
	100	102	0.00668	0.0267	0.00678	200.0	200.0	200.0	0.0	0.0	1	-360.0	360.0;
	102	91	0.00555	0.02219	0.00563	200.0	200.0	200.0	0.0	0.0	1	-360.0	360.0;
	91	92	0.00569	0.02277	0.00578	200.0	200.0	200.0	0.0	0.0	1	-360.0	360.0;
	92	97	0.0054	0.0216	0.00548	200.0	200.0	200.0	0.0	0.0	1	-360.0	360.0;
	97	94	0.00593	0.02373	0.00602	200.0	200.0	200.0	0.0	0.0	1	-360.0	360.0;
	97	109	0.00692	0.02768	0.00703	200.0	200.0	200.0	0.0	0.0	1	-360.0	360.0;
	92	117	0.00716	0.02864	0.00727	200.0	200.0	200.0	0.0	0.0	1	-360.0	360.0;
	117	83	0.00581	0.02324	0.0059	200.0	200.0	200.0	0.0	0.0	1	-360.0	360.0;
	109	105	0.00795	0.03181	0.00807	200.0	200.0	200.0	0.0	0.0	1	-360.0	360.0;
	105	101	0.00496	0.01984	0.00504	200.0	200.0	200.0	0.0	0.0	1	-360.0	360.0;
	101	114	0.00493	0.0197	0.005	200.0	200.0	200.0	0.0	0.0	1	-360.0	360.0;
	82	98	0.00844	0.03376	0.00857	200.0	200.0	200.0	0.0	0.0	1	-360.0	360.0;
	98	90	0.00381	0.01525	0.00387	200.0	200.0	200.0	0.0	0.0	1	-360.0	360.0;
	98	87	0.00602	0.02409	0.00611	200.0	200.0	200.0	0.0	0.0	1	-360.0	360.0;
	87	86	0.00466	0.01863	0.00473	200.0	200.0	200.0	0.0	0.0	1	-360.0	360.0;
	87	104	0.00692	0.02768	0.00703	200.0	200.0	200.0	0.0	0.0	1	-360.0	360.0;
	104	108	0.00548	0.02191	0.00556	500.0	500.0	500.0	0.0	0.0	1	-360.0	360.0;
	108	88	0.00648	0.02592	0.00658	500.0	500.0	500.0	0.0	0.0	1	-360.0	360.0;
	88	84	0.00626	0.02505	0.00636	400.0	400.0	400.0	0.0	0.0	1	-360.0	360.0;
	88	118	0.007	0.02801	0.00711	200.0	200.0	200.0	0.0	0.0	1	-360.0	360.0;
	118	110	0.00415	0.01661	0.00422	200.0	200.0	200.0	0.0	0.0	1	-360.0	360.0;
	118	106	0.00589	0.02358	0.00599	200.0	200.0	200.0	0.0	0.0	1	-360.0	360.0;
	106	115	0.00773	0.03093	0.00785	250.0	250.0	250.0	0.0	0.0	1	-360.0	360.0;
	115	112	0.00848	0.03393	0.00861	250.0	250.0	250.0	0.0	0.0	1	-360.0	360.0;
	114	93	0.00863	0.03451	0.00876	200.0	200.0	200.0	0.0	0.0	1	-360.0	360.0;
	93	89	0.00486	0.01945	0.00494	200.0	200.0	200.0	0.0	0.0	1	-360.0	360.0;
	89	113	0.00844	0.03376	0.00857	200.0	200.0	200.0	0.0	0.0	1	-360.0	360.0;
	113	116	0.00544	0.02176	0.00552	200.0	200.0	200.0	0.0	0.0	1	-360.0	360.0;
	94	107	0.00903	0.03613	0.00917	200.0	200.0	200.0	0.0	0.0	1	-360.0	360.0;
	107	111	0.00706	0.02822	0.00717	200.0	200.0	200.0	0.0	0.0	1	-360.0	360.0;
	111	85	0.00594	0.02375	0.00603	200.0	200.0	200.0	0.0	0.0	1	-360.0	360.0;
	111	103	0.00808	0.03231	0.0082	200.0	200.0	200.0	0.0	0.0	1	-360.0	360.0;
	103	96	0.00753	0.03011	0.00764	200.0	200.0	200.0	0.0	0.0	1	-360.0	360.0;
	96	99	0.00651	0.02603	0.00661	200.0	200.0	200.0	0.0	0.0	1	-360.0	360.0;
	89	95	0.00911	0.03645	0.00925	200.0	200.0	200.0	0.0	0.0	1	-360.0	360.0;
	105	114	0.00606	0.02425	0.00616	200.0	200.0	200.0	0.0	0.0	1	-360.0	360.0;
	86	98	0.00607	0.02429	0.00617	200.0	200.0	200.0	0.0	0.0	1	-360.0	360.0;
	86	90	0.00611	0.02443	0.0062	200.0	200.0	200.0	0.0	0.0	1	-360.0	360.0;
	87	90	0.00637	0.0255	0.00647	200.0	200.0	200.0	0.0	0.0	1	-360.0	360.0;
	106	110	0.00687	0.02746	0.00697	200.0	200.0	200.0	0.0	0.0	1	-360.0	360.0;
	91	100	0.00693	0.02773	0.00704	200.0	200.0	200.0	0.0	0.0	1	-360.0	360.0;
	82	109	0.00708	0.0283	0.00719	200.0	200.0	200.0	0.0	0.0	1	-360.0	360.0;
	84	110	0.00712	0.02848	0.00723	250.0	250.0	250.0	0.0	0.0	1	-360.0	360.0;
	86	104	0.00714	0.02857	0.00725	200.0	200.0	200.0	0.0	0.0	1	-360.0	360.0;
	92	94	0.00715	0.0286	0.00726	200.0	200.0	200.0	0.0	0.0	1	-360.0	360.0;
	85	107	0.00736	0.02945	0.00748	200.0	200.0	200.0	0.0	0.0	1	-360.0	360.0;
	88	110	0.00742	0.02969	0.00754	200.0	200.0	200.0	0.0	0.0	1	-360.0	360.0;
	84	118	0.00746	0.02984	0.00758	250.0	250.0	250.0	0.0	0.0	1	-360.0	360.0;
	92	109	0.00754	0.03015	0.00765	200.0	200.0	200.0	0.0	0.0	1	-360.0	360.0;
	91	97	0.00758	0.0303	0.00769	200.0	200.0	200.0	0.0	0.0	1	-360.0	360.0;
	8	9	0.00223	0.02448	0.5255	900.0	900.0	900.0	0.0	0.0	1	-360.0	360.0;
	9	10	0.00243	0.02669	0.5729	900.0	900.0	900.0	0.0	0.0	1	-360.0	360.0;
	10	26	0.00246	0.02704	0.5805	900.0	900.0	900.0	0.0	0.0	1	-360.0	360.0;
	26	30	0.0024	0.02637	0.5661	900.0	900.0	900.0	0.0	0.0	1	-360.0	360.0;
	30	38	0.00223	0.02452	0.5262	900.0	900.0	900.0	0.0	0.0	1	-360.0	360.0;
	38	63	0.00234	0.02574	0.5525	900.0	900.0	900.0	0.0	0.0	1	-360.0	360.0;
	63	64	0.00223	0.0245	0.5259	900.0	900.0	900.0	0.0	0.0	1	-360.0	360.0;
	64	65	0.00222	0.02441	0.5239	900.0	900.0	900.0	0.0	0.0	1	-360.0	360.0;
	65	68	0.00226	0.0249	0.5344	900.0	900.0	900.0	0.0	0.0	1	-360.0	360.0;
	68	81	0.00222	0.02441	0.524	900.0	900.0	900.0	0.0	0.0	1	-360.0	360.0;
	8	10	0.0035	0.03852	0.8268	900.0	900.0	900.0	0.0	0.0	1	-360.0	360.0;
	63	65	0.00344	0.0378	0.8113	900.0	900.0	900.0	0.0	0.0	1	-360.0	360.0;
	8	28	0.0	0.024	0.0	500.0	500.0	500.0	0.985	0.0	1	-360.0	360.0;
	9	36	0.0	0.024	0.0	750.0	750.0	750.0	0.98	0.0	1	-360.0	360.0;
	26	13	0.0	0.024	0.0	500.0	500.0	500.0	0.96	0.0	1	-360.0	360.0;
	30	23	0.0	0.024	0.0	500.0	500.0	500.0	0.97	0.0	1	-360.0	360.0;
	38	23	0.0	0.024	0.0	500.0	500.0	500.0	0.96	0.0	1	-360.0	360.0;
	63	53	0.0	0.024	0.0	500.0	500.0	500.0	0.985	0.0	1	-360.0	360.0;
	65	71	0.0	0.024	0.0	500.0	500.0	500.0	0.985	0.0	1	-360.0	360.0;
	68	71	0.0	0.024	0.0	500.0	500.0	500.0	0.985	0.0	1	-360.0	360.0;
	81	84	0.0	0.024	0.0	1000.0	1000.0	1000.0	0.98	0.0	1	-360.0	360.0;
	36	44	0.02751	0.11004	0.02794	300.0	300.0	300.0	0.0	0.0	1	-360.0	360.0;
	77	82	0.05462	0.21849	0.05547	200.0	200.0	200.0	0.0	0.0	1	-360.0	360.0;
	49	67	0.00945	0.03781	0.0096	200.0	200.0	200.0	0.0	0.0	1	-360.0	360.0;
	61	71	0.01059	0.04237	0.01076	200.0	200.0	200.0	0.0	0.0	1	-360.0	360.0;
	61	53	0.0108	0.04319	0.01096	200.0	200.0	200.0	0.0	0.0	1	-360.0	360.0;
	66	60	0.00892	0.03567	0.00905	400.0	400.0	400.0	0.0	0.0	1	-360.0	360.0;
	11	12	0.01352	0.05407	0.01373	200.0	200.0	200.0	0.0	0.0	1	-360.0	360.0;
	46	51	0.00959	0.03834	0.00973	200.0	200.0	200.0	0.0	0.0	1	-360.0	360.0;
	56	41	0.00978	0.03913	0.00993	200.0	200.0	200.0	0.0	0.0	1	-360.0	360.0;
	57	45	0.01143	0.04573	0.01161	200.0	200.0	200.0	0.0	0.0	1	-360.0	360.0;
	95	93	0.00935	0.03739	0.00949	200.0	200.0	200.0	0.0	0.0	1	-360.0	360.0;
	99	111	0.00813	0.03253	0.00826	200.0	200.0	200.0	0.0	0.0	1	-360.0	360.0;
	112	83	0.01099	0.04397	0.01116	250.0	250.0	250.0	0.0	0.0	1	-360.0	360.0;
	116	89	0.01032	0.04129	0.01048	200.0	200.0	200.0	0.0	0.0	1	-360.0	360.0;
	36	29	0.00829	0.03316	0.00842	250.0	250.0	250.0	0.0	0.0	1	-360.0	360.0;
	11	25	0.01368	0.05473	0.01389	200.0	200.0	200.0	0.0	0.0	1	-360.0	360.0;
];

%% bus names (imported with matpower_import.apply_bus_names)
mpc.bus_name = {
	'Osthof_138';
	'Buchau_138';
	'Buchfeld_138';
	'Seestadt_138';
	'Eichfurt_138';
	'Oberdorf_138';
	'Waldroda_138';
	'Grosswang_345';
	'Suedroda_345';
	'Bachhausen_345';
	'Lindeck_138';
	'Suedkirchen_138';
	'Fernau_138';
	'Moorstadt_138';
	'Neuwalde_138';
	'Kalteck_138';
	'Ostkirchen_138';
	'Eichstadt_138';
	'Goldfurt_138';
	'Birkfurt_138';
	'Goldkirchen_138';
	'Seedorf_138';
	'Neuheim_138';
	'Talbrueck_138';
	'Unterhagen_138';
	'Bachkirchen_345';
	'Westhausen_138';
	'Breitbach_138';
	'Steinloh_138';
	'Hochwang_345';
	'Nahheim_138';
	'Talau_138';
	'Birkheim_138';
	'Steinfeld_138';
	'Grosshagen_138';
	'Breithof_138';
	'Niederau_138';
	'Bergdorf_345';
	'Tiefberg_138';
	'Warmhagen_138';
	'Bachfurt_138';
	'Nordhof_138';
	'Oberstadt_138';
	'Seewang_138';
	'Hochbrueck_138';
	'Westroda_138';
	'Oberroda_138';
	'Kieshof_138';
	'Kalttal_138';
	'Blauwalde_138';
	'Silberkirchen_138';
	'Silberhof_138';
	'Warmroda_138';
	'Goldroda_138';
	'Steinheim_138';
	'Waldau_138';
	'Kleinloh_138';
	'Rotberg_138';
	'Hochstadt_138';
	'Birkbrueck_138';
	'Feldtal_138';
	'Breiteck_138';
	'Waldfurt_345';
	'Wiesenbrueck_345';
	'Talhof_345';
	'Seebrueck_138';
	'Flachwang_138';
	'Kleintal_345';
	'Westeck_138';
	'Kleinwalde_138';
	'Fernloh_138';
	'Kleinwang_138';
	'Buchtal_138';
	'Nahtal_138';
	'Langbrueck_138';
	'Fernfurt_138';
	'Unterbach_138';
	'Bachfeld_138';
	'Breitwang_138';
	'Kurzberg_138';
	'Kiesried_345';
	'Goldfeld_138';
	'Tiefbach_138';
	'Goldhof_138';
	'Weissfeld_138';
	'Breitried_138';
	'Obertal_138';
	'Steinberg_138';
	'Blaueck_138';
	'Kurzdorf_138';
	'Ferntal_138';
	'Taleck_138';
	'Blaudorf_138';
	'Talhausen_138';
	'Steinbach_138';
	'Hochberg_138';
	'Warmfeld_138';
	'Hochried_138';
	'Neuhof_138';
	'Langberg_138';
	'Walddorf_138';
	'Tieffurt_138';
	'Feldheim_138';
	'Kurzfurt_138';
	'Warmbach_138';
	'Rotfurt_138';
	'Waldbach_138';
	'Rotbrueck_138';
	'Altried_138';
	'Steinkirchen_138';
	'Nordloh_138';
	'Neubrueck_138';
	'Blautal_138';
	'Nahau_138';
	'Sandhof_138';
	'Silbertal_138';
	'Birkberg_138';
	'Warmloh_138';
};
